Circuit: * C:\Users\Uni\Documents\GitHub\ASP2019\translinear_ratio_1.asc

Direct Newton iteration for .op point succeeded.
Ignoring empty pin current: Ix(u1:1)
Ignoring empty pin current: Ix(u1:2)
Ignoring empty pin current: Ix(u1:1)
Ignoring empty pin current: Ix(u1:2)

Date: Tue Jan 15 11:56:03 2019
Total elapsed time: 0.083 seconds.

tnom = 27
temp = 27
method = modified trap
totiter = 2103
traniter = 2094
tranpoints = 1048
accept = 1048
rejected = 0
matrix size = 16
fillins = 11
solver = Normal
Matrix Compiler1: 2.18 KB object code size  0.5/0.3/[0.2]
Matrix Compiler2: off  [0.2]/0.3/0.2

