Circuit: * C:\Users\Uni\Documents\GitHub\ASP2019\translinear_ratio_NMOS.asc

Direct Newton iteration for .op point succeeded.
Ignoring empty pin current: Ix(u1:1)
Ignoring empty pin current: Ix(u1:2)
Ignoring empty pin current: Ix(u1:1)
Ignoring empty pin current: Ix(u1:2)

Date: Tue Jan 15 12:20:15 2019
Total elapsed time: 0.097 seconds.

tnom = 27
temp = 27
method = modified trap
totiter = 2110
traniter = 2094
tranpoints = 1048
accept = 1048
rejected = 0
matrix size = 20
fillins = 23
solver = Normal
Matrix Compiler1: 2.80 KB object code size  0.7/0.4/[0.2]
Matrix Compiler2: off  [0.3]/0.3/0.7

